 ****** HSPICE -- K-2015.06-3 win64 (Aug  6 2015) ******                        
  Copyright (c) 1986 - 2021 by Synopsys, Inc. All Rights Reserved.              
  This software and the associated documentation are proprietary
  to Synopsys, Inc. This software may only be used in accordance
  with the terms and conditions of a written license agreement with
  Synopsys, Inc. All other use, reproduction, or distribution of
  this software is strictly prohibited.
  Input File: CS_amp_ac.sp                                                      
  Command line options: D:\Hspice_K-2015.06-3\WIN64\hspice.exe -i CS_amp_ac.sp -o D:\_University\_current\text6_17\CS_amp_ac.lis
  lic:  
  lic: FLEXlm: v11.2.1 
  lic: USER:   Zezzid               HOSTNAME: LAPTOP-NBK8184L 
  lic: HOSTID: "68545a57211d"       PID:      48660 
  lic: Using FLEXlm license file: 
  lic: 27000@LAPTOP-NBK8184L 
  lic: Checkout 1 hspice 
  lic: License/Maintenance for hspice will expire on 30-dec-2030/2029.2029 
  lic: 1(in_use)/99(total) FLOATING license(s) on SERVER 27000@LAPTOP-NBK8184L 
  lic:   
 Init: read install configuration file: D:\Hspice_K-2015.06-3\meta.cfg

 **warning**  runlvl smaller than 5, reset to 5 when accurate turned on
  **warning** (..\models\ms018.mdl:33) Model n18 device geometries will not be checked against the limits set by lmin, lmax, wmin and wmax. To enable this check, add a period(.) to the model name(i.e. enable model selector).

 **warning**  runlvl smaller than 5, reset to 5 when accurate turned on
1****** HSPICE -- K-2015.06-3 win64 (Aug  6 2015) ******                        
 ******  
 .title cs_amp_ac

 ****** circuit name directory
 circuit number to circuit name directory
   number circuitname                     definition         multiplier
        0 main circuit
        1 x1.                             cs_amp             1.00 
1****** HSPICE -- K-2015.06-3 win64 (Aug  6 2015) ******                        
 ******  
 .title cs_amp_ac

 ****** mos   model parameters tnom=  25.000 temp=  25.000 ******
 ***************************************************************************
 ***        model parameters  model name:   0:n18      model type:nmos   ***
 ***************************************************************************

   *** general parameters ***
    deriv=   0.           

   ***  level 49  model parameters  ***

       hspver=    2006.03               level=         49         
      version=       3.24            paramchk=          0         
       apwarn=          1                lite=          0         
       vgslim=          0             binUnit=          2         
       capMod=          3               xpart=          1         
       mobMod=          1              nqsMod=          0         
       stiMod=          0                 elm=          5         
     sfvtflag=          0                 tox=  3.87e-009 meter   
           xj=   1.6e-007 meter       binflag=          0         
         lmin=   1.5e-007 meter          lmax=     1e-005 meter   
         wmin=   1.9e-007 meter          wmax=     0.0001 meter   
         lref=          0 meter          wref=          0 meter   
         lint=1.57571e-008 meter          wint=-1.44505e-009 meter   
        lmult=          1               wmult=          1         
           ll=2.63528e-016                 lln=     1.1206         
           lw=-2.26256e-016                 lwn=       0.92         
          lwl=-2.05767e-022                  wl=-2.36646e-016         
          wln=       1.06                  ww=-3.64097e-014         
          wwn=   0.876847                 wwl=    -4e-021         
          dwg= -5.96e-009 m/V             dwb=   4.5e-009 m/V^1/2 
           xl=   1.8e-008                  xw=          0         
           a0=       0.83                 ags=       0.32 V^-1    
           b0=     6e-008 meter            b1=          0 meter   
         keta=     -0.003 V^-1           voff=     -0.103 V       
        ngate=          0 cm^-3           vbx=          0 V       
          vbm=         -3 V                xt=  1.55e-007 meter   
         vth0=       0.39 V               nch=3.8694e+017 cm^-3   
         nsub=     6e+016 cm^-3           nlx=7.5451e-008 meter   
       gamma1=          0 V^-1/2       gamma2=          0 V^-1/2  
           k1=   0.680104 V^1/2            k2= -0.0499778         
           k3=         10                 k3b=         -3 V^-1    
           w0=5.58201e-007 meter          dvt0=        1.3         
         dvt1=   0.577163                dvt2=  -0.171755 V^-1    
        dvt0w=          0 meter^-1      dvt1w=          0 meter^-1
        dvt2w=          0 V^-1           dsub=        0.4         
         eta0=      0.028                etab=     -0.027 V^-1    
           u0=      0.034 m^2/V/sec         ua= -1.03e-009 m/V     
           ub=2.36667e-018 (m/V)^2          uc=   1.2e-010 V^-1    
         vsat=      82500 m/sec            a1=          0 v^-1    
           a2=       0.99               delta=       0.01 V       
         rdsw=    55.5497 ohm-um         prwg=        0.4 V^-1    
         prwb=      -0.24 V^-1/2           wr=          1         
         pclm=        1.2             pdiblc1=      0.025         
      pdiblc2=     0.0038             pdiblcb=          0 V^-1    
       pscbe1=  3.45e+008 V/m          pscbe2=     1e-006 V/m     
        drout=       0.56                pvag=          0         
      nfactor=       1.25                cdsc=          0 f/m^2   
        cdscb=          0 f/V/m^2       cdscd=     0.0001 f/V/m^2 
          cit=          0 f/m^2        alpha0=1.7754e-008 m/V     
        beta0=    11.1684 V               dlc=   8.5e-009 meter   
          dwc=   4.5e-008 meter           clc=     1e-007 meter   
          cle=        0.6                cgso=   3.7e-010 f/m     
         cgdo=   3.7e-010 f/m            cgbo=8.03054e-010 f/m     
         cgsl=          0 f/m            cgdl=          0 f/m     
       ckappa=        0.6                  cf=          0 f/m     
         acde=       0.64 m/V            moin=         24 V^1/2   
         toxm=  3.87e-009 m            dtoxcv=          0 m       
          vfb (not used)                alpha1=     0.1764 1/V     
         ijth=        0.1 A              noff=     1.2025         
       voffcv=          0                 tcj=   0.000842 1/K     
        tcjsw=   0.000669 1/K          tcjswg=   0.000669 1/K     
          tpb=    0.00147 V/K           tpbsw=   0.000868 V/K     
       tpbswg=   0.000868 V/K             llc=2.63528e-016         
          lwc=-2.26256e-016                lwlc=-2.05767e-022         
          wlc=-2.36646e-016                 wwc=-3.64097e-014         
         wwlc=    -4e-021                tnom=     298.15 K       
          kt1=  -0.257287 V              kt1l=    -1e-009         
          kt2=      -0.04                 ute=      -1.55         
          ua1=  1.76e-009 m/V             ub1=  -2.4e-018 (m/V)^2 
          uc1=    -1e-010 m/V^2            at=      37000 m/s     
          prt=        -55         
          using Berkeley noise model       noiMod=          2         
         noia=8.2282e+019                noib=      13327         
         noic=-2.4937e-014                  em=1.7767e+007         
           ef=      0.818                  af=          1         
           kf=          0              gdsnoi=-1.23457e-029         
          using Berkeley diodes          using ACM 
          acm=        12                 hdif=    2e-007 meter    
         ldif=    7e-008 meter             js= 3.52e-007 amp/m^2  
          jsw=    3e-013 amp/m            xti=      3.25          
           nj=    1.0392                   cj=  0.000968 f/m^2    
           mj=     0.346                   pb=       0.7 V        
         cjsw= 7.95e-011 f/m             mjsw=     0.538          
          php (not used)                  pbsw=         1 V        
       cjgate (not used)                 cjswg= 4.18e-010 f/m      
        mjswg=     0.538                pbswg=         1 V        
        lketa=  -1.7e-009               lvoff=  -3.3e-009         
          lu0=2.30577e-011                 lua=7.73498e-019         
     lnfactor=   4.5e-008                lua1=     6e-018         
         luc1=   1.7e-017             lalpha1= 7.625e-009         
        wvth0=-2.97095e-008                 wk1=-2.48968e-008         
          wu0=-3.10097e-009                wua1=  -1.1e-016         
        pvth0=     5e-016                 pk1=   1.3e-015         
          pua=    -1e-024                 puc=   1.5e-024         
        pvsat=  -8.3e-010               ppclm=     3e-015         
     ppdiblc2=   2.7e-016                pua1=    -5e-025         
         puc1=    -3e-024                 pat=  -7.5e-010         
 ***************************************************************************
 ***        model parameters  model name:   0:p18      model type:pmos   ***
 ***************************************************************************

   *** general parameters ***
    deriv=   0.           

   ***  level 49  model parameters  ***

       hspver=    2006.03               level=         49         
      version=       3.24            paramchk=          0         
       apwarn=          1                lite=          0         
       vgslim=          0             binUnit=          2         
       capMod=          3               xpart=          1         
       mobMod=          1              nqsMod=          0         
       stiMod=          0                 elm=          5         
     sfvtflag=          0                 tox=  3.74e-009 meter   
           xj=   1.7e-007 meter       binflag=          0         
         lmin=   1.5e-007 meter          lmax=     1e-005 meter   
         wmin=   1.9e-007 meter          wmax=     0.0001 meter   
         lref=          0 meter          wref=          0 meter   
         lint=     1e-008 meter          wint=     8e-009 meter   
        lmult=          1               wmult=          1         
           ll=   3.4e-015                 lln=          1         
           lw= -3.36e-016                 lwn=          1         
          lwl=          0                  wl=3.59042e-015         
          wln=      1.045                  ww=  -1.9e-015         
          wwn=          1                 wwl=-1.1205e-021         
          dwg=-1.7362e-008 m/V             dwb=     2e-008 m/V^1/2 
           xl=  -5.7e-009                  xw=          0         
           a0=          1                 ags=        0.2 V^-1    
           b0=   6.3e-008 meter            b1=          0 meter   
         keta=       0.02 V^-1           voff=     -0.095 V       
        ngate= 3.168e+020 cm^-3           vbx=          0 V       
          vbm=         -3 V                xt=  1.55e-007 meter   
         vth0=     -0.402 V               nch=   5.5e+017 cm^-3   
         nsub=     6e+016 cm^-3           nlx=     9e-008 meter   
       gamma1=          0 V^-1/2       gamma2=          0 V^-1/2  
           k1=   0.587239 V^1/2            k2= 0.00709069         
           k3=        2.6                 k3b=     2.4862 V^-1    
           w0=          0 meter          dvt0=   0.719493         
         dvt1=   0.246744                dvt2=  0.0780897 V^-1    
        dvt0w=          0 meter^-1      dvt1w=     800000 meter^-1
        dvt2w=          0 V^-1           dsub=       0.56         
         eta0=       0.04                etab=     -0.025 V^-1    
           u0=   0.008661 m^2/V/sec         ua=  2.85e-010 m/V     
           ub=     1e-018 (m/V)^2          uc= -4.77e-011 V^-1    
         vsat=     100000 m/sec            a1=          0 v^-1    
           a2=       0.99               delta=       0.01 V       
         rdsw=        455 ohm-um         prwg=          0 V^-1    
         prwb=       -0.4 V^-1/2           wr=          1         
         pclm=        0.7             pdiblc1=          0         
      pdiblc2=      0.007             pdiblcb=          0 V^-1    
       pscbe1=     4e+008 V/m          pscbe2=     1e-007 V/m     
        drout=       0.56                pvag=          0         
      nfactor=        0.9                cdsc=          0 f/m^2   
        cdscb=          0 f/V/m^2       cdscd=          0 f/V/m^2 
          cit=          0 f/m^2        alpha0=     7e-008 m/V     
        beta0=    22.8424 V               dlc=  -1.5e-009 meter   
          dwc=     8e-009 meter           clc=     1e-007 meter   
          cle=        0.6                cgso=   4.2e-010 f/m     
         cgdo=   4.2e-010 f/m            cgbo=1.47728e-010 f/m     
         cgsl=          0 f/m            cgdl=          0 f/m     
       ckappa=        0.6                  cf=          0 f/m     
         acde=   0.850508 m/V            moin=    14.9534 V^1/2   
         toxm=  3.74e-009 m            dtoxcv=          0 m       
          vfb (not used)                alpha1=    7.04917 1/V     
         ijth=        0.1 A              noff=    1.43182         
       voffcv=          0                 tcj=   0.000876 1/K     
        tcjsw=   0.000745 1/K          tcjswg=   0.000745 1/K     
          tpb=    0.00153 V/K           tpbsw=    0.00117 V/K     
       tpbswg=    0.00117 V/K             llc=   3.4e-015         
          lwc= -3.36e-016                lwlc=          0         
          wlc=3.59042e-015                 wwc=  -1.9e-015         
         wwlc=-1.1205e-021                tnom=     298.15 K       
          kt1=  -0.257701 V              kt1l=    -8e-009         
          kt2= -0.0309799                 ute=   -1.27036         
          ua1=5.38663e-010 m/V             ub1=-2.071e-018 (m/V)^2 
          uc1=2.06097e-011 m/V^2            at=      10000 m/s     
          prt=         90         
          using Berkeley noise model       noiMod=          2         
         noia=3.3617e+018                noib=     195360         
         noic=5.2658e-012                  em=6.2548e+007         
           ef=     1.1307                  af=          1         
           kf=          0              gdsnoi=-1.23457e-029         
          using Berkeley diodes          using ACM 
          acm=        12                 hdif=    2e-007 meter    
         ldif=    7e-008 meter             js= 1.66e-007 amp/m^2  
          jsw=  1.2e-013 amp/m            xti=       4.5          
           nj=    1.0384                   cj=   0.00107 f/m^2    
           mj=     0.415                   pb=     0.817 V        
         cjsw= 9.89e-011 f/m             mjsw=     0.489          
          php (not used)                  pbsw=         1 V        
       cjgate (not used)                 cjswg= 5.07e-010 f/m      
        mjswg=     0.489                pbswg=         1 V        
        lketa=  -8.5e-009               lvoff=  -1.7e-009         
          lk1=3.55321e-009                 lu0=    -2e-011         
          lua=   5.5e-018            lnfactor=     1e-007         
       lbeta0=  -7.5e-008                lkt2=    -3e-009         
        wvoff=    -2e-009               wvth0=1.26754e-008         
          wu0=1.38154e-010                 wuc=3.1668e-017         
         wua1=   1.1e-016               pketa=     5e-016         
        pvoff=    -1e-016               pvth0= -1.25e-015         
          pua=    -2e-024                 puc=  -2.5e-024         
     pnfactor=    -5e-015                pkt2=-6.53317e-016         
         pua1= -2.37e-024                 pat=    -1e-009         
 

  
      
 **info** set option symb=1 internally to help for convergence.
 *****************************************************************
 ******  option summary
 ******
 runlvl  = 5         bypass  = 2         
  Opening plot unit= 79
 file=D:\_University\_current\text6_17\CS_amp_ac.pa0

 **info** dc convergence successful at Newton-Raphson method 
1****** HSPICE -- K-2015.06-3 win64 (Aug  6 2015) ******                        
 ******  
 .title cs_amp_ac

 ****** operating point information tnom=  25.000 temp=  27.000 ******
 ****** operating point status is all       simulation time is     0.     
    node    =voltage      node    =voltage      node    =voltage

 +0:gnda    =   0.      0:vbias2  =   1.2000  0:vbias3  = 900.0000m
 +0:vdda    =   1.8000  0:vin     = 500.0000m 0:vout    =   1.7545 
 +1:6       = 589.0093m


 **** voltage sources

 subckt                                                         
 element  0:vgnda    0:vvbias2  0:vvbias3  0:vvdda    0:vvin    
  volts      0.         1.2000   900.0000m    1.8000   500.0000m
  current    2.7624u    0.         0.        -2.7624u    0.     
  power      0.         0.         0.         4.9723u    0.     

     total voltage source power dissipation=    4.9723u       watts




 **** mosfets


 subckt   x1         x1         x1        
 element  1:mm1      1:mm2      1:mm3     
 model    0:n18      0:n18      0:p18     
 region     Saturati   Saturati     Linear
  id         2.7624u    2.7624u   -2.7624u
  ibs     -3.973e-22 -7.380e-19  1.688e-22
  ibd      -86.0304a  -29.1185p  2.475e-19
  vgs      500.0000m  610.9907m -900.0000m
  vds      589.0093m    1.1655   -45.4612m
  vbs        0.      -589.0093m    0.     
  vth      445.2546m  565.6348m -489.3740m
  vdsat     91.2369m   90.7712m -347.4740m
  vod       54.7454m   45.3558m -410.6260m
  beta     722.2113u  724.8009u  181.7319u
  gam eff  737.0239m  764.3198m  598.9497m
  gm        43.2643u   44.0937u    6.4886u
  gds      976.3089n    1.0686u   56.5768u
  gmb       10.9710u    7.7717u    2.2773u
  cdtot    492.0663a  409.1898a    1.2763f
  cgtot    848.1801a  827.9144a  839.3865a
  cstot    968.5788a  839.0607a    1.1924f
  cbtot      1.1068f  899.2585a    1.1330f
  cgs      476.3285a  461.8332a  441.8282a
  cgd      139.0567a  137.4658a  361.4601a



1****** HSPICE -- K-2015.06-3 win64 (Aug  6 2015) ******                        
 ******  
 .title cs_amp_ac

 ****** noise analysis tnom=  25.000 temp=  27.000 ******

     frequency =  10.0000        hz




 **** mosfet squared noise voltages (sq v/hz)




 element     1:mm1
       rd  2.553e-23    
       rs  7.975e-20    
       id  113.3653a    
       rx   17.3555k    
       fn   97.6070p    
    total   97.6071p    




 element     1:mm2
       rd  1.207e-26    
       rs  2.444e-23    
       id  3.383e-20    
       rx  319.8750     
       fn   46.9090f    
    total   46.9090f    




 element     1:mm3
       rd  8.966e-20    
       rs  1.196e-19    
       id  298.4063a    
       rx   17.6689k    
       fn   12.0629p    
    total   12.0632p    




 **** total output noise voltage         = 109.7172p       sq v/hz
                                         =  10.4746u       v/rt hz
      transfer function value:
        v(vout)/vvin                     = 750.8747m      
      equivalent input noise at vvin                          
                                         =  13.9499u       /rt hz



 **** the results of the sqrt of integral (v**2 / freq)
      from fstart upto   10.0000       hz. using more freq points
      results in more accurate total noise values.

 **** total output noise voltage   =    0.            volts
 **** total equivalent input noise =    0.           



1****** HSPICE -- K-2015.06-3 win64 (Aug  6 2015) ******                        
 ******  
 .title cs_amp_ac

 ****** noise analysis tnom=  25.000 temp=  27.000 ******

     frequency = 100.0000        hz




 **** mosfet squared noise voltages (sq v/hz)




 element     1:mm1
       rd  2.553e-23    
       rs  7.975e-20    
       id  113.3653a    
       rx   17.3555k    
       fn   14.8416p    
    total   14.8417p    




 element     1:mm2
       rd  1.207e-26    
       rs  2.444e-23    
       id  3.383e-20    
       rx  319.8750     
       fn    7.1327f    
    total    7.1328f    




 element     1:mm3
       rd  8.966e-20    
       rs  1.196e-19    
       id  298.4063a    
       rx   17.6689k    
       fn  892.7922f    
    total  893.0908f    




 **** total output noise voltage         =  15.7419p       sq v/hz
                                         =   3.9676u       v/rt hz
      transfer function value:
        v(vout)/vvin                     = 750.8747m      
      equivalent input noise at vvin                          
                                         =   5.2840u       /rt hz



 **** the results of the sqrt of integral (v**2 / freq)
      from fstart upto  100.0000       hz. using more freq points
      results in more accurate total noise values.

 **** total output noise voltage   =   55.2621u       volts
 **** total equivalent input noise =   73.5969u      



1****** HSPICE -- K-2015.06-3 win64 (Aug  6 2015) ******                        
 ******  
 .title cs_amp_ac

 ****** noise analysis tnom=  25.000 temp=  27.000 ******

     frequency =   1.0000k       hz




 **** mosfet squared noise voltages (sq v/hz)




 element     1:mm1
       rd  2.553e-23    
       rs  7.975e-20    
       id  113.3653a    
       rx   17.3555k    
       fn    2.2567p    
    total    2.2569p    




 element     1:mm2
       rd  1.207e-26    
       rs  2.444e-23    
       id  3.383e-20    
       rx  319.8750     
       fn    1.0846f    
    total    1.0846f    




 element     1:mm3
       rd  8.966e-20    
       rs  1.196e-19    
       id  298.4063a    
       rx   17.6689k    
       fn   66.0770f    
    total   66.3756f    




 **** total output noise voltage         =   2.3243p       sq v/hz
                                         =   1.5246u       v/rt hz
      transfer function value:
        v(vout)/vvin                     = 750.8747m      
      equivalent input noise at vvin                          
                                         =   2.0304u       /rt hz



 **** the results of the sqrt of integral (v**2 / freq)
      from fstart upto    1.0000k      hz. using more freq points
      results in more accurate total noise values.

 **** total output noise voltage   =   86.6522u       volts
 **** total equivalent input noise =  115.4017u      



1****** HSPICE -- K-2015.06-3 win64 (Aug  6 2015) ******                        
 ******  
 .title cs_amp_ac

 ****** noise analysis tnom=  25.000 temp=  27.000 ******

     frequency =  10.0000k       hz




 **** mosfet squared noise voltages (sq v/hz)




 element     1:mm1
       rd  2.553e-23    
       rs  7.975e-20    
       id  113.3652a    
       rx   17.3555k    
       fn  343.1471f    
    total  343.2605f    




 element     1:mm2
       rd  1.207e-26    
       rs  2.444e-23    
       id  3.383e-20    
       rx  319.8752     
       fn  164.9137a    
    total  164.9475a    




 element     1:mm3
       rd  8.973e-20    
       rs  1.196e-19    
       id  298.4059a    
       rx   17.6689k    
       fn    4.8905f    
    total    5.1891f    




 **** total output noise voltage         = 348.6145f       sq v/hz
                                         = 590.4359n       v/rt hz
      transfer function value:
        v(vout)/vvin                     = 750.8742m      
      equivalent input noise at vvin                          
                                         = 786.3313n       /rt hz



 **** the results of the sqrt of integral (v**2 / freq)
      from fstart upto   10.0000k      hz. using more freq points
      results in more accurate total noise values.

 **** total output noise voltage   =  118.9342u       volts
 **** total equivalent input noise =  158.3942u      



1****** HSPICE -- K-2015.06-3 win64 (Aug  6 2015) ******                        
 ******  
 .title cs_amp_ac

 ****** noise analysis tnom=  25.000 temp=  27.000 ******

     frequency = 100.0000k       hz




 **** mosfet squared noise voltages (sq v/hz)




 element     1:mm1
       rd  2.554e-23    
       rs  7.974e-20    
       id  113.3513a    
       rx   17.3545k    
       fn   52.1708f    
    total   52.2842f    




 element     1:mm2
       rd  1.207e-26    
       rs  2.444e-23    
       id  3.383e-20    
       rx  319.8548     
       fn   25.0727a    
    total   25.1066a    




 element     1:mm3
       rd  8.967e-20    
       rs  1.196e-19    
       id  298.3693a    
       rx   17.6678k    
       fn  361.9066a    
    total  660.4852a    




 **** total output noise voltage         =  52.9698f       sq v/hz
                                         = 230.1516n       v/rt hz
      transfer function value:
        v(vout)/vvin                     = 750.8282m      
      equivalent input noise at vvin                          
                                         = 306.5304n       /rt hz



 **** the results of the sqrt of integral (v**2 / freq)
      from fstart upto  100.0000k      hz. using more freq points
      results in more accurate total noise values.

 **** total output noise voltage   =  155.4488u       volts
 **** total equivalent input noise =  207.0249u      



1****** HSPICE -- K-2015.06-3 win64 (Aug  6 2015) ******                        
 ******  
 .title cs_amp_ac

 ****** noise analysis tnom=  25.000 temp=  27.000 ******

     frequency =   1.0000x       hz




 **** mosfet squared noise voltages (sq v/hz)




 element     1:mm1
       rd  2.472e-23    
       rs  7.878e-20    
       id  111.9787a    
       rx   17.2491k    
       fn    7.8367f    
    total    7.9488f    




 element     1:mm2
       rd  1.207e-26    
       rs  2.472e-23    
       id  3.342e-20    
       rx  317.9233     
       fn    3.7665a    
    total    3.8000a    




 element     1:mm3
       rd  8.856e-20    
       rs  1.182e-19    
       id  294.7563a    
       rx   17.5605k    
       fn   26.4609a    
    total  321.4240a    




 **** total output noise voltage         =   8.2740f       sq v/hz
                                         =  90.9617n       v/rt hz
      transfer function value:
        v(vout)/vvin                     = 746.2683m      
      equivalent input noise at vvin                          
                                         = 121.8887n       /rt hz



 **** the results of the sqrt of integral (v**2 / freq)
      from fstart upto    1.0000x      hz. using more freq points
      results in more accurate total noise values.

 **** total output noise voltage   =  198.9737u       volts
 **** total equivalent input noise =  265.1454u      



1****** HSPICE -- K-2015.06-3 win64 (Aug  6 2015) ******                        
 ******  
 .title cs_amp_ac

 ****** noise analysis tnom=  25.000 temp=  27.000 ******

     frequency =  10.0000x       hz




 **** mosfet squared noise voltages (sq v/hz)




 element     1:mm1
       rd  1.116e-23    
       rs  3.563e-20    
       id   50.6473a    
       rx   11.6005k    
       fn  538.9604a    
    total  589.6433a    




 element     1:mm2
       rd  1.207e-26    
       rs  1.116e-23    
       id  1.523e-20    
       rx  214.5897     
       fn  2.609e-19    
    total  2.762e-19    




 element     1:mm3
       rd  4.008e-20    
       rs  5.345e-20    
       id  133.3168a    
       rx   11.8100k    
       fn  8.858e-19    
    total  134.2961a    




 **** total output noise voltage         = 724.2156a       sq v/hz
                                         =  26.9113n       v/rt hz
      transfer function value:
        v(vout)/vvin                     = 501.8864m      
      equivalent input noise at vvin                          
                                         =  53.6202n       /rt hz



 **** the results of the sqrt of integral (v**2 / freq)
      from fstart upto   10.0000x      hz. using more freq points
      results in more accurate total noise values.

 **** total output noise voltage   =  246.7309u       volts
 **** total equivalent input noise =  342.7935u      



1****** HSPICE -- K-2015.06-3 win64 (Aug  6 2015) ******                        
 ******  
 .title cs_amp_ac

 ****** noise analysis tnom=  25.000 temp=  27.000 ******

     frequency = 100.0000x       hz




 **** mosfet squared noise voltages (sq v/hz)




 element     1:mm1
       rd  2.234e-25    
       rs  6.387e-22    
       id  9.079e-19    
       rx    1.5532k    
       fn    1.4691a    
    total    2.3777a    




 element     1:mm2
       rd  1.618e-26    
       rs  2.174e-25    
       id  4.702e-22    
       rx   37.7117     
       fn  1.225e-21    
    total  1.696e-21    




 element     1:mm3
       rd  7.183e-22    
       rs  9.584e-22    
       id    2.3905a    
       rx    1.5814k    
       fn  1.176e-21    
    total    2.3933a    




 **** total output noise voltage         =   4.7727a       sq v/hz
                                         =   2.1846n       v/rt hz
      transfer function value:
        v(vout)/vvin                     =  67.1974m      
      equivalent input noise at vvin                          
                                         =  32.5108n       /rt hz



 **** the results of the sqrt of integral (v**2 / freq)
      from fstart upto  100.0000x      hz. using more freq points
      results in more accurate total noise values.

 **** total output noise voltage   =  259.4907u       volts
 **** total equivalent input noise =  494.9755u      



1****** HSPICE -- K-2015.06-3 win64 (Aug  6 2015) ******                        
 ******  
 .title cs_amp_ac

 ****** noise analysis tnom=  25.000 temp=  27.000 ******

     frequency =   1.0000g       hz




 **** mosfet squared noise voltages (sq v/hz)




 element     1:mm1
       rd  2.172e-26    
       rs  6.288e-24    
       id  8.939e-21    
       rx  154.1125     
       fn  2.199e-21    
    total  1.114e-20    




 element     1:mm2
       rd  1.602e-26    
       rs  2.170e-26    
       id  1.989e-22    
       rx   24.5247     
       fn  7.880e-23    
    total  2.777e-22    




 element     1:mm3
       rd  7.385e-24    
       rs  9.672e-24    
       id  2.410e-20    
       rx  158.7727     
       fn  8.770e-25    
    total  2.411e-20    




 **** total output noise voltage         = 3.554e-20       sq v/hz
                                         = 188.5092p       v/rt hz
      transfer function value:
        v(vout)/vvin                     =   6.6690m      
      equivalent input noise at vvin                          
                                         =  28.2665n       /rt hz



 **** the results of the sqrt of integral (v**2 / freq)
      from fstart upto    1.0000g      hz. using more freq points
      results in more accurate total noise values.

 **** total output noise voltage   =  260.2418u       volts
 **** total equivalent input noise =    1.0015m      




          ***** job concluded
1****** HSPICE -- K-2015.06-3 win64 (Aug  6 2015) ******                        
 ******  
 .title cs_amp_ac

 ****** job statistics summary tnom=  25.000 temp=  27.000 ******

  ******  HSPICE Threads Information  ******

  Command Line Threads Count :     1
  Available CPU Count        :    16
  Actual Threads Count       :     1


  ******  Circuit Statistics  ******
  # nodes       =      14 # elements   =       9
  # resistors   =       0 # capacitors =       1 # inductors   =       0
  # mutual_inds =       0 # vccs       =       0 # vcvs        =       0
  # cccs        =       0 # ccvs       =       0 # volt_srcs   =       5
  # curr_srcs   =       0 # diodes     =       0 # bjts        =       0
  # jfets       =       0 # mosfets    =       3 # U elements  =       0
  # T elements  =       0 # W elements =       0 # B elements  =       0
  # S elements  =       0 # P elements =       0 # va device   =       0
  # vector_srcs =       0 # N elements =       0


  ******  Runtime Statistics (seconds)  ******

  analysis           time    # points   tot. iter  conv.iter
  op point           0.00           1          10
  ac analysis        0.00          81          81
  readin             0.01
  errchk             0.00
  setup              0.00
  output             0.00


           peak memory used         50.54 megabytes
           total cpu time            0.02 seconds
           total elapsed time        0.18 seconds
           job started at     21:39:56 11/28/2021
           job ended   at     21:39:56 11/28/2021


  lic: Release hspice token(s) 
 lic: total license checkout elapse time:        0.16(s)
