 ****** HSPICE -- K-2015.06-3 win64 (Aug  6 2015) ******                        
  Copyright (c) 1986 - 2021 by Synopsys, Inc. All Rights Reserved.              
  This software and the associated documentation are proprietary
  to Synopsys, Inc. This software may only be used in accordance
  with the terms and conditions of a written license agreement with
  Synopsys, Inc. All other use, reproduction, or distribution of
  this software is strictly prohibited.
  Input File: CS_amp_DC.sp                                                      
  Command line options: D:\Hspice_K-2015.06-3\WIN64\hspice.exe -i CS_amp_DC.sp -o D:\_University\_current\text1128\CS_amp_DC.lis
  lic:  
  lic: FLEXlm: v11.2.1 
  lic: USER:   Zezzid               HOSTNAME: LAPTOP-NBK8184L 
  lic: HOSTID: "68545a57211d"       PID:      47304 
  lic: Using FLEXlm license file: 
  lic: 27000@LAPTOP-NBK8184L 
  lic: Checkout 1 hspice 
  lic: License/Maintenance for hspice will expire on 30-dec-2030/2029.2029 
  lic: 1(in_use)/99(total) FLOATING license(s) on SERVER 27000@LAPTOP-NBK8184L 
  lic:   
 Init: read install configuration file: D:\Hspice_K-2015.06-3\meta.cfg

 **warning**  runlvl smaller than 5, reset to 5 when accurate turned on
  **warning** (..\models\ms018.mdl:33) Model n18 device geometries will not be checked against the limits set by lmin, lmax, wmin and wmax. To enable this check, add a period(.) to the model name(i.e. enable model selector).

 **warning**  runlvl smaller than 5, reset to 5 when accurate turned on
1****** HSPICE -- K-2015.06-3 win64 (Aug  6 2015) ******                        
 ******  
 .title cs_amp_dc

 ****** circuit name directory
 circuit number to circuit name directory
   number circuitname                     definition         multiplier
        0 main circuit
        1 x1.                             cs_amp             1.00 
1****** HSPICE -- K-2015.06-3 win64 (Aug  6 2015) ******                        
 ******  
 .title cs_amp_dc

 ****** mos   model parameters tnom=  25.000 temp=  25.000 ******
 ***************************************************************************
 ***        model parameters  model name:   0:n18      model type:nmos   ***
 ***************************************************************************

   *** general parameters ***
    deriv=   0.           

   ***  level 49  model parameters  ***

       hspver=    2006.03               level=         49         
      version=       3.24            paramchk=          0         
       apwarn=          1                lite=          0         
       vgslim=          0             binUnit=          2         
       capMod=          3               xpart=          1         
       mobMod=          1              nqsMod=          0         
       stiMod=          0                 elm=          5         
     sfvtflag=          0                 tox=  3.87e-009 meter   
           xj=   1.6e-007 meter       binflag=          0         
         lmin=   1.5e-007 meter          lmax=     1e-005 meter   
         wmin=   1.9e-007 meter          wmax=     0.0001 meter   
         lref=          0 meter          wref=          0 meter   
         lint=1.57571e-008 meter          wint=-1.44505e-009 meter   
        lmult=          1               wmult=          1         
           ll=2.63528e-016                 lln=     1.1206         
           lw=-2.26256e-016                 lwn=       0.92         
          lwl=-2.05767e-022                  wl=-2.36646e-016         
          wln=       1.06                  ww=-3.64097e-014         
          wwn=   0.876847                 wwl=    -4e-021         
          dwg= -5.96e-009 m/V             dwb=   4.5e-009 m/V^1/2 
           xl=   1.8e-008                  xw=          0         
           a0=       0.83                 ags=       0.32 V^-1    
           b0=     6e-008 meter            b1=          0 meter   
         keta=     -0.003 V^-1           voff=     -0.103 V       
        ngate=          0 cm^-3           vbx=          0 V       
          vbm=         -3 V                xt=  1.55e-007 meter   
         vth0=       0.39 V               nch=3.8694e+017 cm^-3   
         nsub=     6e+016 cm^-3           nlx=7.5451e-008 meter   
       gamma1=          0 V^-1/2       gamma2=          0 V^-1/2  
           k1=   0.680104 V^1/2            k2= -0.0499778         
           k3=         10                 k3b=         -3 V^-1    
           w0=5.58201e-007 meter          dvt0=        1.3         
         dvt1=   0.577163                dvt2=  -0.171755 V^-1    
        dvt0w=          0 meter^-1      dvt1w=          0 meter^-1
        dvt2w=          0 V^-1           dsub=        0.4         
         eta0=      0.028                etab=     -0.027 V^-1    
           u0=      0.034 m^2/V/sec         ua= -1.03e-009 m/V     
           ub=2.36667e-018 (m/V)^2          uc=   1.2e-010 V^-1    
         vsat=      82500 m/sec            a1=          0 v^-1    
           a2=       0.99               delta=       0.01 V       
         rdsw=    55.5497 ohm-um         prwg=        0.4 V^-1    
         prwb=      -0.24 V^-1/2           wr=          1         
         pclm=        1.2             pdiblc1=      0.025         
      pdiblc2=     0.0038             pdiblcb=          0 V^-1    
       pscbe1=  3.45e+008 V/m          pscbe2=     1e-006 V/m     
        drout=       0.56                pvag=          0         
      nfactor=       1.25                cdsc=          0 f/m^2   
        cdscb=          0 f/V/m^2       cdscd=     0.0001 f/V/m^2 
          cit=          0 f/m^2        alpha0=1.7754e-008 m/V     
        beta0=    11.1684 V               dlc=   8.5e-009 meter   
          dwc=   4.5e-008 meter           clc=     1e-007 meter   
          cle=        0.6                cgso=   3.7e-010 f/m     
         cgdo=   3.7e-010 f/m            cgbo=8.03054e-010 f/m     
         cgsl=          0 f/m            cgdl=          0 f/m     
       ckappa=        0.6                  cf=          0 f/m     
         acde=       0.64 m/V            moin=         24 V^1/2   
         toxm=  3.87e-009 m            dtoxcv=          0 m       
          vfb (not used)                alpha1=     0.1764 1/V     
         ijth=        0.1 A              noff=     1.2025         
       voffcv=          0                 tcj=   0.000842 1/K     
        tcjsw=   0.000669 1/K          tcjswg=   0.000669 1/K     
          tpb=    0.00147 V/K           tpbsw=   0.000868 V/K     
       tpbswg=   0.000868 V/K             llc=2.63528e-016         
          lwc=-2.26256e-016                lwlc=-2.05767e-022         
          wlc=-2.36646e-016                 wwc=-3.64097e-014         
         wwlc=    -4e-021                tnom=     298.15 K       
          kt1=  -0.257287 V              kt1l=    -1e-009         
          kt2=      -0.04                 ute=      -1.55         
          ua1=  1.76e-009 m/V             ub1=  -2.4e-018 (m/V)^2 
          uc1=    -1e-010 m/V^2            at=      37000 m/s     
          prt=        -55         
          using Berkeley noise model       noiMod=          2         
         noia=8.2282e+019                noib=      13327         
         noic=-2.4937e-014                  em=1.7767e+007         
           ef=      0.818                  af=          1         
           kf=          0              gdsnoi=-1.23457e-029         
          using Berkeley diodes          using ACM 
          acm=        12                 hdif=    2e-007 meter    
         ldif=    7e-008 meter             js= 3.52e-007 amp/m^2  
          jsw=    3e-013 amp/m            xti=      3.25          
           nj=    1.0392                   cj=  0.000968 f/m^2    
           mj=     0.346                   pb=       0.7 V        
         cjsw= 7.95e-011 f/m             mjsw=     0.538          
          php (not used)                  pbsw=         1 V        
       cjgate (not used)                 cjswg= 4.18e-010 f/m      
        mjswg=     0.538                pbswg=         1 V        
        lketa=  -1.7e-009               lvoff=  -3.3e-009         
          lu0=2.30577e-011                 lua=7.73498e-019         
     lnfactor=   4.5e-008                lua1=     6e-018         
         luc1=   1.7e-017             lalpha1= 7.625e-009         
        wvth0=-2.97095e-008                 wk1=-2.48968e-008         
          wu0=-3.10097e-009                wua1=  -1.1e-016         
        pvth0=     5e-016                 pk1=   1.3e-015         
          pua=    -1e-024                 puc=   1.5e-024         
        pvsat=  -8.3e-010               ppclm=     3e-015         
     ppdiblc2=   2.7e-016                pua1=    -5e-025         
         puc1=    -3e-024                 pat=  -7.5e-010         
 ***************************************************************************
 ***        model parameters  model name:   0:p18      model type:pmos   ***
 ***************************************************************************

   *** general parameters ***
    deriv=   0.           

   ***  level 49  model parameters  ***

       hspver=    2006.03               level=         49         
      version=       3.24            paramchk=          0         
       apwarn=          1                lite=          0         
       vgslim=          0             binUnit=          2         
       capMod=          3               xpart=          1         
       mobMod=          1              nqsMod=          0         
       stiMod=          0                 elm=          5         
     sfvtflag=          0                 tox=  3.74e-009 meter   
           xj=   1.7e-007 meter       binflag=          0         
         lmin=   1.5e-007 meter          lmax=     1e-005 meter   
         wmin=   1.9e-007 meter          wmax=     0.0001 meter   
         lref=          0 meter          wref=          0 meter   
         lint=     1e-008 meter          wint=     8e-009 meter   
        lmult=          1               wmult=          1         
           ll=   3.4e-015                 lln=          1         
           lw= -3.36e-016                 lwn=          1         
          lwl=          0                  wl=3.59042e-015         
          wln=      1.045                  ww=  -1.9e-015         
          wwn=          1                 wwl=-1.1205e-021         
          dwg=-1.7362e-008 m/V             dwb=     2e-008 m/V^1/2 
           xl=  -5.7e-009                  xw=          0         
           a0=          1                 ags=        0.2 V^-1    
           b0=   6.3e-008 meter            b1=          0 meter   
         keta=       0.02 V^-1           voff=     -0.095 V       
        ngate= 3.168e+020 cm^-3           vbx=          0 V       
          vbm=         -3 V                xt=  1.55e-007 meter   
         vth0=     -0.402 V               nch=   5.5e+017 cm^-3   
         nsub=     6e+016 cm^-3           nlx=     9e-008 meter   
       gamma1=          0 V^-1/2       gamma2=          0 V^-1/2  
           k1=   0.587239 V^1/2            k2= 0.00709069         
           k3=        2.6                 k3b=     2.4862 V^-1    
           w0=          0 meter          dvt0=   0.719493         
         dvt1=   0.246744                dvt2=  0.0780897 V^-1    
        dvt0w=          0 meter^-1      dvt1w=     800000 meter^-1
        dvt2w=          0 V^-1           dsub=       0.56         
         eta0=       0.04                etab=     -0.025 V^-1    
           u0=   0.008661 m^2/V/sec         ua=  2.85e-010 m/V     
           ub=     1e-018 (m/V)^2          uc= -4.77e-011 V^-1    
         vsat=     100000 m/sec            a1=          0 v^-1    
           a2=       0.99               delta=       0.01 V       
         rdsw=        455 ohm-um         prwg=          0 V^-1    
         prwb=       -0.4 V^-1/2           wr=          1         
         pclm=        0.7             pdiblc1=          0         
      pdiblc2=      0.007             pdiblcb=          0 V^-1    
       pscbe1=     4e+008 V/m          pscbe2=     1e-007 V/m     
        drout=       0.56                pvag=          0         
      nfactor=        0.9                cdsc=          0 f/m^2   
        cdscb=          0 f/V/m^2       cdscd=          0 f/V/m^2 
          cit=          0 f/m^2        alpha0=     7e-008 m/V     
        beta0=    22.8424 V               dlc=  -1.5e-009 meter   
          dwc=     8e-009 meter           clc=     1e-007 meter   
          cle=        0.6                cgso=   4.2e-010 f/m     
         cgdo=   4.2e-010 f/m            cgbo=1.47728e-010 f/m     
         cgsl=          0 f/m            cgdl=          0 f/m     
       ckappa=        0.6                  cf=          0 f/m     
         acde=   0.850508 m/V            moin=    14.9534 V^1/2   
         toxm=  3.74e-009 m            dtoxcv=          0 m       
          vfb (not used)                alpha1=    7.04917 1/V     
         ijth=        0.1 A              noff=    1.43182         
       voffcv=          0                 tcj=   0.000876 1/K     
        tcjsw=   0.000745 1/K          tcjswg=   0.000745 1/K     
          tpb=    0.00153 V/K           tpbsw=    0.00117 V/K     
       tpbswg=    0.00117 V/K             llc=   3.4e-015         
          lwc= -3.36e-016                lwlc=          0         
          wlc=3.59042e-015                 wwc=  -1.9e-015         
         wwlc=-1.1205e-021                tnom=     298.15 K       
          kt1=  -0.257701 V              kt1l=    -8e-009         
          kt2= -0.0309799                 ute=   -1.27036         
          ua1=5.38663e-010 m/V             ub1=-2.071e-018 (m/V)^2 
          uc1=2.06097e-011 m/V^2            at=      10000 m/s     
          prt=         90         
          using Berkeley noise model       noiMod=          2         
         noia=3.3617e+018                noib=     195360         
         noic=5.2658e-012                  em=6.2548e+007         
           ef=     1.1307                  af=          1         
           kf=          0              gdsnoi=-1.23457e-029         
          using Berkeley diodes          using ACM 
          acm=        12                 hdif=    2e-007 meter    
         ldif=    7e-008 meter             js= 1.66e-007 amp/m^2  
          jsw=  1.2e-013 amp/m            xti=       4.5          
           nj=    1.0384                   cj=   0.00107 f/m^2    
           mj=     0.415                   pb=     0.817 V        
         cjsw= 9.89e-011 f/m             mjsw=     0.489          
          php (not used)                  pbsw=         1 V        
       cjgate (not used)                 cjswg= 5.07e-010 f/m      
        mjswg=     0.489                pbswg=         1 V        
        lketa=  -8.5e-009               lvoff=  -1.7e-009         
          lk1=3.55321e-009                 lu0=    -2e-011         
          lua=   5.5e-018            lnfactor=     1e-007         
       lbeta0=  -7.5e-008                lkt2=    -3e-009         
        wvoff=    -2e-009               wvth0=1.26754e-008         
          wu0=1.38154e-010                 wuc=3.1668e-017         
         wua1=   1.1e-016               pketa=     5e-016         
        pvoff=    -1e-016               pvth0= -1.25e-015         
          pua=    -2e-024                 puc=  -2.5e-024         
     pnfactor=    -5e-015                pkt2=-6.53317e-016         
         pua1= -2.37e-024                 pat=    -1e-009         
 

  
      
 **info** set option symb=1 internally to help for convergence.
 *****************************************************************
 ******  option summary
 ******
 runlvl  = 5         bypass  = 2         
  Opening plot unit= 79
 file=D:\_University\_current\text1128\CS_amp_DC.pa0





 ****     small-signal transfer characteristics

        vvin       input resistance at vvin      output resistance at v(vout)     v(vout)/vvin     

       0.                175.7211g                       2.6721k                    1.0000 
      20.0000m           176.1007g                       3.0055k                    1.0000 
      40.0000m           176.4733g                       3.4310k                    1.0000 
      60.0000m           176.8441g                       3.9875k                    1.0000 
      80.0000m           177.2111g                       4.7354k                    1.0000 
     100.0000m           177.5797g                       5.7713k                    1.0000 
     120.0000m           177.9481g                       7.2537k                    1.0000 
     140.0000m           178.3057g                       9.4506k                    1.0000 
     160.0000m           178.6664g                      12.8274k                    1.0000 
     180.0000m           179.0251g                      18.2142k                    1.0000 
     200.0000m           179.3798g                      27.1297k                    1.0000 
     220.0000m           179.7342g                      42.4238k                    1.0000 
     240.0000m           180.0846g                      69.5773k                    1.0000 
     260.0000m           180.4399g                     119.3732k                    1.0000 
     280.0000m           180.7840g                     213.4443k                    1.0000 
     300.0000m           181.1275g                     395.8487k                    1.0001 
     320.0000m           181.4596g                     757.3270k                    1.0002 
     340.0000m           181.7818g                       1.4863x                    1.0003 
     360.0000m           182.0795g                       2.9767x                    1.0006 
     380.0000m           182.3209g                       6.0560x                    1.0013 
     400.0000m           182.4575g                      12.4715x                    1.0027 
     420.0000m           182.3689g                      25.9330x                    1.0055 
     440.0000m           181.8277g                      54.3841x                    1.0115 
     460.0000m           180.3333g                     115.0901x                    1.0240 
     480.0000m           176.8788g                     246.6994x                    1.0508 
     500.0000m           169.3958g                     541.2511x                    1.1098 
     520.0000m           153.6698g                       1.2510g                    1.2498 
     540.0000m           120.9207g                       3.3571g                    1.6547 
     560.0000m            44.2345g                      21.2525g                    4.9447 
     580.0000m            14.2483g                     115.4340g                   16.2627 
     600.0000m            19.5056g                     144.3404g                   12.0948 
     620.0000m            30.9562g                     165.1258g                    7.6043 
     640.0000m            53.5411g                     178.6310g                    4.2912 
     660.0000m            95.5382g                     185.8918g                    2.2849 
     680.0000m           165.0910g                     189.2010g                    1.2124 
     700.0000m           260.2259g                     190.5016g                  677.7157m
     720.0000m           360.9811g                     190.8952g                  420.2331m
     740.0000m           442.3968g                     190.8790g                  298.2108m
     760.0000m           494.9283g                     190.6790g                  240.7550m
     780.0000m           524.0552g                     190.3727g                  213.6914m
     800.0000m           538.8048g                     190.0113g                  200.8552m
     820.0000m           545.9074g                     189.6033g                  194.6407m
     840.0000m           549.2195g                     189.1494g                  191.4870m
     860.0000m           550.6801g                     188.6562g                  189.7400m
     880.0000m           551.2531g                     188.1183g                  188.6203m
     900.0000m           551.4218g                     187.5269g                  187.7592m
     920.0000m           551.4049g                     186.8849g                  186.9923m
     940.0000m           551.2531g                     186.1761g                  186.2257m
     960.0000m           551.0507g                     185.4077g                  185.4306m
     980.0000m           550.8148g                     184.5567g                  184.5673m
       1.0000            550.5455g                     183.6237g                  183.6285m
       1.0200            550.2260g                     182.5888g                  182.5911m
       1.0400            549.8901g                     181.4541g                  181.4551m
       1.0600            549.5043g                     180.1836g                  180.1841m
       1.0800            549.0855g                     178.7994g                  178.7996m
       1.1000            548.6173g                     177.2582g                  177.2583m
       1.1200            548.0999g                     175.5533g                  175.5533m
       1.1400            547.5335g                     173.6512g                  173.6512m
       1.1600            546.9184g                     171.5690g                  171.5690m
       1.1800            546.2219g                     169.2669g                  169.2669m
       1.2000            545.4611g                     166.7197g                  166.7197m
       1.2200            544.6365g                     163.9386g                  163.9387m
       1.2400            543.7324g                     160.8687g                  160.8687m
       1.2600            542.7495g                     157.5346g                  157.5346m
       1.2800            541.6887g                     153.9403g                  153.9403m
       1.3000            540.5509g                     150.0275g                  150.0275m
       1.3200            539.3371g                     145.8597g                  145.8597m
       1.3400            538.0484g                     141.4547g                  141.4547m
       1.3600            536.7179g                     136.8106g                  136.8106m
       1.3800            535.3303g                     131.9833g                  131.9833m
       1.4000            533.9023g                     127.0266g                  127.0266m
       1.4200            532.4663g                     121.9653g                  121.9653m
       1.4400            531.0222g                     116.8476g                  116.8476m
       1.4600            529.5860g                     111.7435g                  111.7435m
       1.4800            528.1731g                     106.7159g                  106.7159m
       1.5000            526.7984g                     101.7648g                  101.7648m
       1.5200            525.4769g                      96.9809g                   96.9809m
       1.5400            524.2077g                      92.3446g                   92.3446m
       1.5600            522.9902g                      87.9553g                   87.9553m
       1.5800            521.8388g                      83.7338g                   83.7338m
       1.6000            520.7678g                      79.7616g                   79.7616m
       1.6200            519.7461g                      76.0047g                   76.0047m
       1.6400            518.8031g                      72.4780g                   72.4780m
       1.6600            517.9081g                      69.1702g                   69.1702m
       1.6800            517.0756g                      66.0701g                   66.0701m
       1.7000            516.3050g                      63.1820g                   63.1820m
       1.7200            515.5957g                      60.5040g                   60.5040m
       1.7400            514.9178g                      57.9800g                   57.9800m
       1.7600            514.3004g                      55.6361g                   55.6361m
       1.7800            513.7284g                      53.4653g                   53.4653m
       1.8000            513.1869g                      51.4089g                   51.4089m
  
 **info** dc convergence successful at Newton-Raphson method 
1****** HSPICE -- K-2015.06-3 win64 (Aug  6 2015) ******                        
 ******  
 .title cs_amp_dc

 ****** operating point information tnom=  25.000 temp=  27.000 ******
 ****** operating point status is all       simulation time is     0.     
    node    =voltage      node    =voltage      node    =voltage

 +0:gnda    =   0.      0:vbias   = 700.0000m 0:vdda    =   1.8000 
 +0:vin     = 500.0000m 0:vout    = 502.8988m 1:2       =   1.8000 


 **** voltage sources

 subckt                                              
 element  0:vvin     0:vgnda    0:vvbias   0:vvdda   
  volts    500.0000m    0.       700.0000m    1.8000 
  current    5.0484p    1.0029p    0.        -6.0514p
  power     -2.5242p    0.         0.        10.8924p

     total voltage source power dissipation=    8.3682p       watts




 **** mosfets


 subckt   x1         x1         x1        
 element  1:mm1      1:mm2      1:mm3     
 model    0:n18      0:p18      0:p18     
 region       Cutoff     Cutoff     Cutoff
  id         5.5455p   -3.4571p  -16.9210a
  ibs       -1.3496a  3.030e-28    0.     
  ibd       -1.3496a    1.1699a  4.948e-24
  vgs      200.0000m -238.0432n -238.0432n
  vds        2.8988m   -1.2971  -238.0432n
  vbs     -500.0000m    0.         0.     
  vth      592.2286m -469.7772m -482.3526m
  vdsat     43.7546m  -43.9216m  -43.9240m
  vod     -392.2286m  469.7770m  482.3523m
  beta       1.8307m  465.3727u  463.1467u
  gam eff  780.9959m  599.1313m  599.1313m
  gm       169.7475p   96.1840p  470.9049a
  gds        1.8420n    1.4181p   71.0834p
  gmb       37.8370p   33.7122p  171.1278a
  cdtot      1.1329f    1.1215f    1.4826f
  cgtot      1.1865f    1.1765f    1.1765f
  cstot      1.1336f    1.4825f    1.4826f
  cbtot      2.0535f    2.2076f    2.5685f
  cgs      349.8917a  392.5135a  392.4626a
  cgd      349.8707a  393.4708a  393.5250a







 ****     small-signal transfer characteristics

      v(vout)/vvin                             =    1.1100 
      input resistance at             vvin     =  169.3767g
      output resistance at v(vout)             =  541.2998x



 ***************************************************
   ******   pole/zero analysis  
  
  
    input =  0:vvin          output = v(vout)
  
       poles (rad/sec)                 poles ( hertz)
 real            imag            real            imag            
 -1.83819k       0.              -292.557        0.              
 -23.3316k       0.              -3.71335k       0.              
  
       zeros (rad/sec)                 zeros ( hertz)
 real            imag            real            imag            
 -23.3169k       0.              -3.71100k       0.              
 -62.1187g       0.              -9.88649g       0.              
  
  ***** constant factor = 32.9219n

          ***** job concluded
1****** HSPICE -- K-2015.06-3 win64 (Aug  6 2015) ******                        
 ******  
 .title cs_amp_dc

 ****** job statistics summary tnom=  25.000 temp=  27.000 ******

  ******  HSPICE Threads Information  ******

  Command Line Threads Count :     1
  Available CPU Count        :    16
  Actual Threads Count       :     1


  ******  Circuit Statistics  ******
  # nodes       =      13 # elements   =       8
  # resistors   =       0 # capacitors =       1 # inductors   =       0
  # mutual_inds =       0 # vccs       =       0 # vcvs        =       0
  # cccs        =       0 # ccvs       =       0 # volt_srcs   =       4
  # curr_srcs   =       0 # diodes     =       0 # bjts        =       0
  # jfets       =       0 # mosfets    =       3 # U elements  =       0
  # T elements  =       0 # W elements =       0 # B elements  =       0
  # S elements  =       0 # P elements =       0 # va device   =       0
  # vector_srcs =       0 # N elements =       0


  ******  Runtime Statistics (seconds)  ******

  analysis           time    # points   tot. iter  conv.iter
  op point           0.00           1          19
  dc sweep           0.00          91         197
  readin             0.01
  errchk             0.00
  setup              0.00
  output             0.00


           peak memory used         50.56 megabytes
           total cpu time            0.02 seconds
           total elapsed time        0.17 seconds
           job started at     19:24:26 11/28/2021
           job ended   at     19:24:26 11/28/2021


  lic: Release hspice token(s) 
 lic: total license checkout elapse time:        0.15(s)
