 ****** HSPICE -- K-2015.06-3 win64 (Aug  6 2015) ******                        
  Copyright (c) 1986 - 2021 by Synopsys, Inc. All Rights Reserved.              
  This software and the associated documentation are proprietary
  to Synopsys, Inc. This software may only be used in accordance
  with the terms and conditions of a written license agreement with
  Synopsys, Inc. All other use, reproduction, or distribution of
  this software is strictly prohibited.
  Input File: OPA_unity_gain.sp                                                 
  Command line options: D:\Hspice_K-2015.06-3\WIN64\hspice.exe -i OPA_unity_gain.sp -o D:\_University\_sophomore year\电基\text6.22\OPA_unity_gain.lis
  lic:  
  lic: FLEXlm: v11.2.1 
  lic: USER:   Zezzid               HOSTNAME: LAPTOP-NBK8184L 
  lic: HOSTID: "68545a57211d"       PID:      56784 
  lic: Using FLEXlm license file: 
  lic: 27000@LAPTOP-NBK8184L 
  lic: Checkout 1 hspice 
  lic: License/Maintenance for hspice will expire on 30-dec-2030/2029.2029 
  lic: 1(in_use)/99(total) FLOATING license(s) on SERVER 27000@LAPTOP-NBK8184L 
  lic:   
 Init: read install configuration file: D:\Hspice_K-2015.06-3\meta.cfg

 **warning**  runlvl smaller than 5, reset to 5 when accurate turned on

 **warning**  runlvl smaller than 5, reset to 5 when accurate turned on
1****** HSPICE -- K-2015.06-3 win64 (Aug  6 2015) ******                        
 ******  
 opa_unity_gain

 ****** circuit name directory
 circuit number to circuit name directory
   number circuitname                     definition         multiplier
        0 main circuit
        1 x1.                             opamp              1.00 
  **warning** (OPA_unity_gain.sp:29) The third value 0.00D+00 and the forth value 1.00D-08 both are smaller than the second value 1.00D-05 , so the transient statement is interpreted as: .tran tstep tstop tstart and the forth term will be neglected.
1****** HSPICE -- K-2015.06-3 win64 (Aug  6 2015) ******                        
 ******  
 opa_unity_gain

 ****** mos   model parameters tnom=  25.000 temp=  25.000 ******
 ***************************************************************************
 *** common model parameters  model name:   1:n08      model type:nmos   ***
 ***************************************************************************
     names  values   units     names  values   units     names  values   units
     -----  ------   -----     -----  ------   -----     -----  ------   -----

   1*** geometry parameters ***
       ld=  16.00n meters      lmlt=   1.00                wd=   0.    meters 
     wmlt=   1.00                xl=   0.    meters        xw=   0.    meters 
     lref=   0.    meters      wref=   0.    meters      lref=   0.    meters 
     wref=   0.    meters     xlref=   0.    meters     xwref=   0.    meters 
     lmin=   0.    meters      wmin=   0.    meters      lmax=   0.    meters 
     wmax=   0.    meters 

   2*** threshold voltage parameters ***
      vto= 700.00m volts        nss=   0.    1/cm**2      tpg=   1.00         
      phi= 700.00m volts      gamma= 400.00m v**0.5      bulk=  gnd           
    ngate=   0.    cm**3       nsub= 2.9e+16 1/cm**3   delvto=   0.    volts  

   3*** gate overlap capacitance parameters ***
     cgbo= 700.00p f/meter     cgdo= 220.00p f/meter     cgso= 220.00p f/meter
     meto=   0.    meters 

   4*** gate capacitance parameters ***
    capop=   2.00               cf1=   0.    volts        cf2= 100.00m volts  
      cf3=   1.00  volts        cf4=  50.00               cf5= 666.67m        
      cf6= 500.00               xqc= 500.00m              tox=  14.00n meters 
      cox=   2.47m f/m**2 

   5*** diffusion parasitic parameters ***
      acm=   0.                  is=  10.00f amps          js=   0.    a/m**2 
      jsw=   0.    amp/m        nds=   1.00               cbd=   0.    farad  
      cbs=   0.    farad         cj= 770.00u f/m**2      cjsw= 380.00p f/m    
   cjgate= 380.00p f/m           mj= 500.00m             mjsw= 380.00m        
       pb= 800.00m volts        php= 800.00m volts         tt=   0.    secs   
     hdif=   0.    meters      ldif=   0.    meters        rd=   0.    ohms   
       rs=   0.    ohms         rsh=   0.    ohms/sq       fc=   0.           
    alpha=   0.                 vcr=   0.    volts      iirat=   0.           
      rdc=   0.    ohms         rsc=   0.    ohms           n=   1.00         
     vnds=  -1.00  volts  

   6*** temperature effect parameters ***
     tlev=   0.               tlevc=   0.                  eg=   1.11  ev     
     gap1= 702.00u ev/deg      gap2=   1.11k deg          xti=   0.           
      bex=  -1.50               tcv=   0.    v/deg k      trd=   0.    /deg   
      trs=   0.    /deg         cta=   0.    /deg         ctp=   0.    /deg   

   7*** noise parameters ***
       kf=   0.                  af=   1.00              nlev=   2.00         
   gdsnoi=   1.00         

   ***  level  1  model parameters  ***

   lambda=  40.00m /v            kp= 110.00u a/v**2 
 ***************************************************************************
 *** common model parameters  model name:   1:p08      model type:pmos   ***
 ***************************************************************************
     names  values   units     names  values   units     names  values   units
     -----  ------   -----     -----  ------   -----     -----  ------   -----

   1*** geometry parameters ***
       ld=  14.00n meters      lmlt=   1.00                wd=   0.    meters 
     wmlt=   1.00                xl=   0.    meters        xw=   0.    meters 
     lref=   0.    meters      wref=   0.    meters      lref=   0.    meters 
     wref=   0.    meters     xlref=   0.    meters     xwref=   0.    meters 
     lmin=   0.    meters      wmin=   0.    meters      lmax=   0.    meters 
     wmax=   0.    meters 

   2*** threshold voltage parameters ***
      vto=-700.00m volts        nss=   0.    1/cm**2      tpg=   1.00         
      phi= 800.00m volts      gamma= 570.00m v**0.5      bulk=  gnd           
    ngate=   0.    cm**3       nsub= 5.9e+16 1/cm**3   delvto=   0.    volts  

   3*** gate overlap capacitance parameters ***
     cgbo= 700.00p f/meter     cgdo= 220.00p f/meter     cgso= 220.00p f/meter
     meto=   0.    meters 

   4*** gate capacitance parameters ***
    capop=   2.00               cf1=   0.    volts        cf2= 100.00m volts  
      cf3=   1.00  volts        cf4=  50.00               cf5= 666.67m        
      cf6= 500.00               xqc= 500.00m              tox=  14.00n meters 
      cox=   2.47m f/m**2 

   5*** diffusion parasitic parameters ***
      acm=   0.                  is=  10.00f amps          js=   0.    a/m**2 
      jsw=   0.    amp/m        nds=   1.00               cbd=   0.    farad  
      cbs=   0.    farad         cj= 560.00u f/m**2      cjsw= 350.00p f/m    
   cjgate= 350.00p f/m           mj= 500.00m             mjsw= 350.00m        
       pb= 800.00m volts        php= 800.00m volts         tt=   0.    secs   
     hdif=   0.    meters      ldif=   0.    meters        rd=   0.    ohms   
       rs=   0.    ohms         rsh=   0.    ohms/sq       fc=   0.           
    alpha=   0.                 vcr=   0.    volts      iirat=   0.           
      rdc=   0.    ohms         rsc=   0.    ohms           n=   1.00         
     vnds=  -1.00  volts  

   6*** temperature effect parameters ***
     tlev=   0.               tlevc=   0.                  eg=   1.11  ev     
     gap1= 702.00u ev/deg      gap2=   1.11k deg          xti=   0.           
      bex=  -1.50               tcv=   0.    v/deg k      trd=   0.    /deg   
      trs=   0.    /deg         cta=   0.    /deg         ctp=   0.    /deg   

   7*** noise parameters ***
       kf=   0.                  af=   1.00              nlev=   2.00         
   gdsnoi=   1.00         

   ***  level  1  model parameters  ***

   lambda=  50.00m /v            kp=  50.00u a/v**2 
  **info** (OPA_unity_gain.sp:25) DC voltage reset to initial transient source value in source            0:vvip. new dc= -0.2000D+01
  
      
 **info** set option symb=1 internally to help for convergence.
 *****************************************************************
 ******  option summary
 ******
 runlvl  = 5         bypass  = 2         
  Opening plot unit= 79
 file=D:\_University\_sophomore year\电基\text6.22\OPA_unity_gain.pa0





 ****     small-signal transfer characteristics

        vvip       input resistance at vvip      output resistance at v(3)        v(3)/vvip     

      -2.5000            1.000e+20                     690.1292                   159.6734m
      -2.4000            1.000e+20                     583.8549                   508.0133m
      -2.3000            1.000e+20                      45.0510                   979.5390m
      -2.2000            1.000e+20                      13.8171                   999.9351m
      -2.1000            1.000e+20                      13.7186                   999.9366m
      -2.0000            1.000e+20                      13.6213                   999.9381m
      -1.9000            1.000e+20                      13.5252                   999.9395m
      -1.8000            1.000e+20                      13.4303                   999.9410m
      -1.7000            1.000e+20                      13.3365                   999.9423m
      -1.6000            1.000e+20                      13.2438                   999.9437m
      -1.5000            1.000e+20                      13.1523                   999.9450m
      -1.4000            1.000e+20                      13.0618                   999.9463m
      -1.3000            1.000e+20                      12.9725                   999.9476m
      -1.2000            1.000e+20                      12.8841                   999.9488m
      -1.1000            1.000e+20                      12.7969                   999.9500m
      -1.0000            1.000e+20                      12.7106                   999.9512m
    -900.0000m           1.000e+20                      12.6254                   999.9524m
    -800.0000m           1.000e+20                      12.5411                   999.9536m
    -700.0000m           1.000e+20                      12.4578                   999.9547m
    -600.0000m           1.000e+20                      12.3755                   999.9558m
    -500.0000m           1.000e+20                      12.2941                   999.9569m
    -400.0000m           1.000e+20                      12.2136                   999.9579m
    -300.0000m           1.000e+20                      12.1341                   999.9590m
    -200.0000m           1.000e+20                      12.0554                   999.9600m
    -100.0000m           1.000e+20                      11.9776                   999.9610m
       0.                1.000e+20                      11.9007                   999.9620m
     100.0000m           1.000e+20                      11.8247                   999.9629m
     200.0000m           1.000e+20                      11.7495                   999.9639m
     300.0000m           1.000e+20                      11.6751                   999.9648m
     400.0000m           1.000e+20                      11.6015                   999.9657m
     500.0000m           1.000e+20                      11.5287                   999.9666m
     600.0000m           1.000e+20                      11.4568                   999.9675m
     700.0000m           1.000e+20                      11.3856                   999.9683m
     800.0000m           1.000e+20                      11.3151                   999.9692m
     900.0000m           1.000e+20                      11.2454                   999.9700m
       1.0000            1.000e+20                      11.1765                   999.9708m
       1.1000            1.000e+20                      11.1083                   999.9716m
       1.2000            1.000e+20                      11.0408                   999.9724m
       1.3000            1.000e+20                      10.5765                     1.0014 
       1.4000            1.000e+20                       9.4867                     1.0019 
       1.5000            1.000e+20                       7.9194                     1.0016 
       1.6000            1.000e+20                       5.9020                     1.0005 
       1.7000            1.000e+20                       3.3748                   998.1866m
       1.8000            1.000e+20                     114.7748m                  999.0764m
       1.9000            1.000e+20                       1.8090k                    0.     
       2.0000            1.000e+20                       1.8090k                    0.     
       2.1000            1.000e+20                       1.8090k                    0.     
       2.2000            1.000e+20                       1.8090k                    0.     
       2.3000            1.000e+20                       1.8090k                    0.     
       2.4000            1.000e+20                       1.8090k                    0.     
       2.5000            1.000e+20                       1.8090k                    0.     
  
 **info** dc convergence successful at Newton-Raphson method 
1****** HSPICE -- K-2015.06-3 win64 (Aug  6 2015) ******                        
 ******  
 opa_unity_gain

 ****** operating point information tnom=  25.000 temp=  27.000 ******
 ****** operating point status is voltage   simulation time is     0.     
    node    =voltage      node    =voltage      node    =voltage

 +0:1       =  -2.0000  0:3       =  -1.9999  0:4       =   2.5000 
 +0:5       =  -2.5000  1:3       =-976.6882m 1:4       =  -1.5999 
 +1:5       =  -1.5956  1:7       =   1.4836 





 ****     small-signal transfer characteristics

      v(3)/vvip                                =  999.9381m
      input resistance at             vvip     =  1.000e+20
      output resistance at v(3)                =   13.6213 




          ***** job concluded
1****** HSPICE -- K-2015.06-3 win64 (Aug  6 2015) ******                        
 ******  
 opa_unity_gain

 ****** job statistics summary tnom=  25.000 temp=  27.000 ******

  ******  HSPICE Threads Information  ******

  Command Line Threads Count :     1
  Available CPU Count        :    16
  Actual Threads Count       :     1


  ******  Circuit Statistics  ******
  # nodes       =       9 # elements   =      14
  # resistors   =       0 # capacitors =       2 # inductors   =       0
  # mutual_inds =       0 # vccs       =       0 # vcvs        =       0
  # cccs        =       0 # ccvs       =       0 # volt_srcs   =       3
  # curr_srcs   =       1 # diodes     =       0 # bjts        =       0
  # jfets       =       0 # mosfets    =       8 # U elements  =       0
  # T elements  =       0 # W elements =       0 # B elements  =       0
  # S elements  =       0 # P elements =       0 # va device   =       0
  # vector_srcs =       0 # N elements =       0


  ******  Runtime Statistics (seconds)  ******

  analysis           time    # points   tot. iter  conv.iter
  op point           0.00           1           6
  dc sweep           0.00          51         131
  transient          0.01         201         739         282 rev=        42
  readin             0.01
  errchk             0.00
  setup              0.00
  output             0.00


           peak memory used         50.45 megabytes
           total cpu time            0.03 seconds
           total elapsed time        0.22 seconds
           job started at     10:17:00 11/30/2021
           job ended   at     10:17:00 11/30/2021


  lic: Release hspice token(s) 
 lic: total license checkout elapse time:        0.18(s)
