 ****** HSPICE -- K-2015.06-3 win64 (Aug  6 2015) ******                        
  Copyright (c) 1986 - 2021 by Synopsys, Inc. All Rights Reserved.              
  This software and the associated documentation are proprietary
  to Synopsys, Inc. This software may only be used in accordance
  with the terms and conditions of a written license agreement with
  Synopsys, Inc. All other use, reproduction, or distribution of
  this software is strictly prohibited.
  Input File: OPA_open_loop.sp                                                  
  Command line options: D:\Hspice_K-2015.06-3\WIN64\hspice.exe -i OPA_open_loop.sp -o D:\_University\_sophomore year\电基\text6.22\OPA_open_loop.lis
  lic:  
  lic: FLEXlm: v11.2.1 
  lic: USER:   Zezzid               HOSTNAME: LAPTOP-NBK8184L 
  lic: HOSTID: "68545a57211d"       PID:      59996 
  lic: Using FLEXlm license file: 
  lic: 27000@LAPTOP-NBK8184L 
  lic: Checkout 1 hspice 
  lic: License/Maintenance for hspice will expire on 30-dec-2030/2029.2029 
  lic: 1(in_use)/99(total) FLOATING license(s) on SERVER 27000@LAPTOP-NBK8184L 
  lic:   
 Init: read install configuration file: D:\Hspice_K-2015.06-3\meta.cfg

 **warning**  runlvl smaller than 5, reset to 5 when accurate turned on

 **warning**  runlvl smaller than 5, reset to 5 when accurate turned on
1****** HSPICE -- K-2015.06-3 win64 (Aug  6 2015) ******                        
 ******  
 opa_open_loop

 ****** circuit name directory
 circuit number to circuit name directory
   number circuitname                     definition         multiplier
        0 main circuit
        1 x1.                             opamp              1.00 
1****** HSPICE -- K-2015.06-3 win64 (Aug  6 2015) ******                        
 ******  
 opa_open_loop

 ****** mos   model parameters tnom=  25.000 temp=  25.000 ******
 ***************************************************************************
 *** common model parameters  model name:   1:n08      model type:nmos   ***
 ***************************************************************************
     names  values   units     names  values   units     names  values   units
     -----  ------   -----     -----  ------   -----     -----  ------   -----

   1*** geometry parameters ***
       ld=  16.00n meters      lmlt=   1.00                wd=   0.    meters 
     wmlt=   1.00                xl=   0.    meters        xw=   0.    meters 
     lref=   0.    meters      wref=   0.    meters      lref=   0.    meters 
     wref=   0.    meters     xlref=   0.    meters     xwref=   0.    meters 
     lmin=   0.    meters      wmin=   0.    meters      lmax=   0.    meters 
     wmax=   0.    meters 

   2*** threshold voltage parameters ***
      vto= 700.00m volts        nss=   0.    1/cm**2      tpg=   1.00         
      phi= 700.00m volts      gamma= 400.00m v**0.5      bulk=  gnd           
    ngate=   0.    cm**3       nsub= 2.9e+16 1/cm**3   delvto=   0.    volts  

   3*** gate overlap capacitance parameters ***
     cgbo= 700.00p f/meter     cgdo= 220.00p f/meter     cgso= 220.00p f/meter
     meto=   0.    meters 

   4*** gate capacitance parameters ***
    capop=   2.00               cf1=   0.    volts        cf2= 100.00m volts  
      cf3=   1.00  volts        cf4=  50.00               cf5= 666.67m        
      cf6= 500.00               xqc= 500.00m              tox=  14.00n meters 
      cox=   2.47m f/m**2 

   5*** diffusion parasitic parameters ***
      acm=   0.                  is=  10.00f amps          js=   0.    a/m**2 
      jsw=   0.    amp/m        nds=   1.00               cbd=   0.    farad  
      cbs=   0.    farad         cj= 770.00u f/m**2      cjsw= 380.00p f/m    
   cjgate= 380.00p f/m           mj= 500.00m             mjsw= 380.00m        
       pb= 800.00m volts        php= 800.00m volts         tt=   0.    secs   
     hdif=   0.    meters      ldif=   0.    meters        rd=   0.    ohms   
       rs=   0.    ohms         rsh=   0.    ohms/sq       fc=   0.           
    alpha=   0.                 vcr=   0.    volts      iirat=   0.           
      rdc=   0.    ohms         rsc=   0.    ohms           n=   1.00         
     vnds=  -1.00  volts  

   6*** temperature effect parameters ***
     tlev=   0.               tlevc=   0.                  eg=   1.11  ev     
     gap1= 702.00u ev/deg      gap2=   1.11k deg          xti=   0.           
      bex=  -1.50               tcv=   0.    v/deg k      trd=   0.    /deg   
      trs=   0.    /deg         cta=   0.    /deg         ctp=   0.    /deg   

   7*** noise parameters ***
       kf=   0.                  af=   1.00              nlev=   2.00         
   gdsnoi=   1.00         

   ***  level  1  model parameters  ***

   lambda=  40.00m /v            kp= 110.00u a/v**2 
 ***************************************************************************
 *** common model parameters  model name:   1:p08      model type:pmos   ***
 ***************************************************************************
     names  values   units     names  values   units     names  values   units
     -----  ------   -----     -----  ------   -----     -----  ------   -----

   1*** geometry parameters ***
       ld=  14.00n meters      lmlt=   1.00                wd=   0.    meters 
     wmlt=   1.00                xl=   0.    meters        xw=   0.    meters 
     lref=   0.    meters      wref=   0.    meters      lref=   0.    meters 
     wref=   0.    meters     xlref=   0.    meters     xwref=   0.    meters 
     lmin=   0.    meters      wmin=   0.    meters      lmax=   0.    meters 
     wmax=   0.    meters 

   2*** threshold voltage parameters ***
      vto=-700.00m volts        nss=   0.    1/cm**2      tpg=   1.00         
      phi= 800.00m volts      gamma= 570.00m v**0.5      bulk=  gnd           
    ngate=   0.    cm**3       nsub= 5.9e+16 1/cm**3   delvto=   0.    volts  

   3*** gate overlap capacitance parameters ***
     cgbo= 700.00p f/meter     cgdo= 220.00p f/meter     cgso= 220.00p f/meter
     meto=   0.    meters 

   4*** gate capacitance parameters ***
    capop=   2.00               cf1=   0.    volts        cf2= 100.00m volts  
      cf3=   1.00  volts        cf4=  50.00               cf5= 666.67m        
      cf6= 500.00               xqc= 500.00m              tox=  14.00n meters 
      cox=   2.47m f/m**2 

   5*** diffusion parasitic parameters ***
      acm=   0.                  is=  10.00f amps          js=   0.    a/m**2 
      jsw=   0.    amp/m        nds=   1.00               cbd=   0.    farad  
      cbs=   0.    farad         cj= 560.00u f/m**2      cjsw= 350.00p f/m    
   cjgate= 350.00p f/m           mj= 500.00m             mjsw= 350.00m        
       pb= 800.00m volts        php= 800.00m volts         tt=   0.    secs   
     hdif=   0.    meters      ldif=   0.    meters        rd=   0.    ohms   
       rs=   0.    ohms         rsh=   0.    ohms/sq       fc=   0.           
    alpha=   0.                 vcr=   0.    volts      iirat=   0.           
      rdc=   0.    ohms         rsc=   0.    ohms           n=   1.00         
     vnds=  -1.00  volts  

   6*** temperature effect parameters ***
     tlev=   0.               tlevc=   0.                  eg=   1.11  ev     
     gap1= 702.00u ev/deg      gap2=   1.11k deg          xti=   0.           
      bex=  -1.50               tcv=   0.    v/deg k      trd=   0.    /deg   
      trs=   0.    /deg         cta=   0.    /deg         ctp=   0.    /deg   

   7*** noise parameters ***
       kf=   0.                  af=   1.00              nlev=   2.00         
   gdsnoi=   1.00         

   ***  level  1  model parameters  ***

   lambda=  50.00m /v            kp=  50.00u a/v**2 
  
      
 **info** set option symb=1 internally to help for convergence.
 *****************************************************************
 ******  option summary
 ******
 runlvl  = 5         bypass  = 2         
  Opening plot unit= 79
 file=D:\_University\_sophomore year\电基\text6.22\OPA_open_loop.pa0





 ****     small-signal transfer characteristics

        vvip       input resistance at vvip      output resistance at v(3)        v(3)/vvip     

      -5.0000m           1.000e+20                     360.8640                     5.5068 
      -4.9000m           1.000e+20                     366.4597                     5.6747 
      -4.8000m           1.000e+20                     372.2447                     5.8508 
      -4.7000m           1.000e+20                     378.2294                     6.0355 
      -4.6000m           1.000e+20                     384.4250                     6.2294 
      -4.5000m           1.000e+20                     390.8435                     6.4332 
      -4.4000m           1.000e+20                     397.4978                     6.6475 
      -4.3000m           1.000e+20                     404.4020                     6.8732 
      -4.2000m           1.000e+20                     411.5713                     7.1111 
      -4.1000m           1.000e+20                     419.0224                     7.3621 
      -4.0000m           1.000e+20                     426.7733                     7.6272 
      -3.9000m           1.000e+20                     434.8437                     7.9077 
      -3.8000m           1.000e+20                     443.2551                     8.2046 
      -3.7000m           1.000e+20                     452.0314                     8.5195 
      -3.6000m           1.000e+20                     461.1984                     8.8538 
      -3.5000m           1.000e+20                     470.7849                     9.2093 
      -3.4000m           1.000e+20                     480.8228                     9.5879 
      -3.3000m           1.000e+20                     491.3470                     9.9917 
      -3.2000m           1.000e+20                     502.3970                    10.4232 
      -3.1000m           1.000e+20                     514.0165                    10.8852 
      -3.0000m           1.000e+20                     526.2545                    11.3806 
      -2.9000m           1.000e+20                     539.1663                    11.9131 
      -2.8000m           1.000e+20                     552.8144                    12.4867 
      -2.7000m           1.000e+20                     567.2696                    13.1059 
      -2.6000m           1.000e+20                     582.6128                    13.7763 
      -2.5000m           1.000e+20                     598.9368                    14.5039 
      -2.4000m           1.000e+20                     616.3488                    15.2960 
      -2.3000m           1.000e+20                     634.9729                    16.1611 
      -2.2000m           1.000e+20                     654.9547                    17.1092 
      -2.1000m           1.000e+20                     676.4651                    18.1522 
      -2.0000m           1.000e+20                     699.7077                    19.3046 
      -1.9000m           1.000e+20                     724.9262                    20.5837 
      -1.8000m           1.000e+20                     752.4157                    22.0108 
      -1.7000m           1.000e+20                     782.5378                    23.6123 
      -1.6000m           1.000e+20                     815.7412                    25.4211 
      -1.5000m           1.000e+20                     852.5907                    27.4795 
      -1.4000m           1.000e+20                     893.8096                    29.8417 
      -1.3000m           1.000e+20                     940.3418                    32.5796 
      -1.2000m           1.000e+20                     993.4476                    35.7899 
      -1.1000m           1.000e+20                       1.0549k                   39.6068 
      -1.0000m           1.000e+20                       1.1270k                   44.2220 
    -900.0000u           1.000e+20                       1.2135k                   49.9209 
    -800.0000u           1.000e+20                       1.3200k                   57.1498 
    -700.0000u           1.000e+20                       1.4556k                   66.6537 
    -600.0000u           1.000e+20                       1.6371k                   79.7897 
    -500.0000u           1.000e+20                       1.8987k                   99.3664 
    -400.0000u           1.000e+20                       2.3263k                  132.4990 
    -300.0000u           1.000e+20                       3.2411k                  206.0661 
    -200.0000u           1.000e+20                      10.7482k                  836.9350 
    -100.0000u           1.000e+20                     118.2709k                    9.9752k
    -8.674e-19           1.000e+20                     122.8752k                   10.3389k
     100.0000u           1.000e+20                     127.6428k                   10.6944k
     200.0000u           1.000e+20                     132.5687k                   11.0367k
     300.0000u           1.000e+20                       7.5724k                  612.3246 
     400.0000u           1.000e+20                       4.7271k                  364.6780 
     500.0000u           1.000e+20                       3.7639k                  276.1963 
     600.0000u           1.000e+20                       3.2444k                  225.7744 
     700.0000u           1.000e+20                       2.9108k                  191.4658 
     800.0000u           1.000e+20                       2.6758k                  165.7775 
     900.0000u           1.000e+20                       2.5004k                  145.3206 
       1.0000m           1.000e+20                       2.3644k                  128.3222 
       1.1000m           1.000e+20                       2.2561k                  113.7458 
       1.2000m           1.000e+20                       2.1681k                  100.9374 
       1.3000m           1.000e+20                       2.0958k                   89.4600 
       1.4000m           1.000e+20                       2.0358k                   79.0076 
       1.5000m           1.000e+20                       1.9858k                   69.3579 
       1.6000m           1.000e+20                       1.9442k                   60.3436 
       1.7000m           1.000e+20                       1.9095k                   51.8352 
       1.8000m           1.000e+20                       1.8810k                   43.7297 
       1.9000m           1.000e+20                       1.8579k                   35.9430 
       2.0000m           1.000e+20                       1.8396k                   28.4044 
       2.1000m           1.000e+20                       1.8259k                   21.0531 
       2.2000m           1.000e+20                       1.8163k                   13.8351 
       2.3000m           1.000e+20                       1.8107k                    6.7013 
       2.4000m           1.000e+20                       1.8090k                    0.     
       2.5000m           1.000e+20                       1.8090k                    0.     
       2.6000m           1.000e+20                       1.8090k                    0.     
       2.7000m           1.000e+20                       1.8090k                    0.     
       2.8000m           1.000e+20                       1.8090k                    0.     
       2.9000m           1.000e+20                       1.8090k                    0.     
       3.0000m           1.000e+20                       1.8090k                    0.     
       3.1000m           1.000e+20                       1.8090k                    0.     
       3.2000m           1.000e+20                       1.8090k                    0.     
       3.3000m           1.000e+20                       1.8090k                    0.     
       3.4000m           1.000e+20                       1.8090k                    0.     
       3.5000m           1.000e+20                       1.8090k                    0.     
       3.6000m           1.000e+20                       1.8090k                    0.     
       3.7000m           1.000e+20                       1.8090k                    0.     
       3.8000m           1.000e+20                       1.8090k                    0.     
       3.9000m           1.000e+20                       1.8090k                    0.     
       4.0000m           1.000e+20                       1.8090k                    0.     
       4.1000m           1.000e+20                       1.8090k                    0.     
       4.2000m           1.000e+20                       1.8090k                    0.     
       4.3000m           1.000e+20                       1.8090k                    0.     
       4.4000m           1.000e+20                       1.8090k                    0.     
       4.5000m           1.000e+20                       1.8090k                    0.     
       4.6000m           1.000e+20                       1.8090k                    0.     
       4.7000m           1.000e+20                       1.8090k                    0.     
       4.8000m           1.000e+20                       1.8090k                    0.     
       4.9000m           1.000e+20                       1.8090k                    0.     
       5.0000m           1.000e+20                       1.8090k                    0.     
  
 **info** dc convergence successful at Newton-Raphson method 
1****** HSPICE -- K-2015.06-3 win64 (Aug  6 2015) ******                        
 ******  
 opa_open_loop

 ****** operating point information tnom=  25.000 temp=  27.000 ******
 ****** operating point status is all       simulation time is     0.     
    node    =voltage      node    =voltage      node    =voltage

 +0:1       =   0.      0:2       =   0.      0:3       =-392.8541m
 +0:4       =   2.5000  0:5       =  -2.5000  1:3       = 995.2790m
 +1:4       =  -1.6086  1:5       =  -1.6086  1:7       =   1.4836 


 **** voltage sources

 subckt                                              
 element  0:vvip     0:vdd      0:vss      0:vvin    
  volts      0.         2.5000     2.5000     0.     
  current    0.      -161.7035u -161.7035u    0.     
  power      0.       404.2588u  404.2588u    0.     

     total voltage source power dissipation=  808.5177u       watts



 **** current sources

 subckt   x1        
 element  1:ibias   
  volts      3.9836 
  current   30.0000u
  power   -119.5082u


     total current source power dissipation=-119.5082u       watts


 **** mosfets


 subckt   x1         x1         x1         x1         x1         x1        
 element  1:m1       1:m2       1:m3       1:m4       1:m5       1:m6      
 model    1:p08      1:p08      1:n08      1:n08      1:p08      1:n08     
 region     Saturati   Saturati   Saturati   Saturati   Saturati   Saturati
  id       -15.3485u  -15.3485u   15.3485u   15.3485u  -30.6971u  101.0065u
  ibs        0.         0.         0.         0.         0.         0.     
  ibd       35.5005f   35.5005f  -12.1536f  -12.1536f   20.5151f  -28.7285f
  vgs     -995.2790m -995.2790m  891.4312m  891.4312m   -1.0164   891.4312m
  vds       -2.6038    -2.6038   891.4312m  891.4312m   -1.5047     2.1071 
  vbs        0.         0.         0.         0.         0.         0.     
  vth     -697.1376m -697.1376m  697.4274m  697.4274m -697.1376m  697.4274m
  vdsat   -298.1414m -298.1414m  194.0038m  194.0038m -319.2574m  194.0038m
  vod     -298.1414m -298.1414m  194.0038m  194.0038m -319.2574m  194.0038m
  beta     345.3441u  345.3441u  815.5979u  815.5979u  602.3445u    5.3673m
  gam eff  570.0000m  570.0000m  400.0000m  400.0000m  570.0000m  400.0000m
  gm       102.9614u  102.9614u  158.2291u  158.2291u  192.3029u    1.0413m
  gds      679.0228n  679.0228n  592.8035n  592.8035n    1.4275u    3.7262u
  gmb       32.8728u   32.8728u   37.9282u   37.9282u   61.3971u  249.5999u
  cdtot     17.0590f   17.0590f   40.4299f   40.4299f   29.1091f  208.0047f
  cgtot     13.1791f   13.1791f   15.2217f   15.2217f   23.5311f   92.2678f
  cstot     40.9343f   40.9343f   67.1791f   67.1791f   64.0612f  432.7102f
  cbtot     46.6127f   46.6127f   94.3466f   94.3466f   71.7525f  553.5990f
  cgs       10.9099f   10.9099f   12.6822f   12.6822f   20.0015f   79.7167f
  cgd        1.3699f    1.3699f    1.5599f    1.5599f    2.4729f    9.9752f



 subckt   x1         x1        
 element  1:m7       1:m8      
 model    1:p08      1:p08     
 region     Saturati   Saturati
  id      -101.0065u  -30.0000u
  ibs        0.         0.     
  ibd       39.4407f   13.8574f
  vgs       -1.0164    -1.0164 
  vds       -2.8929    -1.0164 
  vbs        0.         0.     
  vth     -697.1376m -697.1376m
  vdsat   -319.2574m -319.2574m
  vod     -319.2574m -319.2574m
  beta       1.9820m  588.6665u
  gam eff  570.0000m  570.0000m
  gm       632.7589u  187.9361u
  gds        4.4121u    1.4275u
  gmb      202.0227u   60.0029u
  cdtot     70.4416f   32.2736f
  cgtot     71.4606f   23.5139f
  cstot    192.4617f   64.0612f
  cbtot    195.1293f   74.9342f
  cgs       61.8229f   20.0015f
  cgd        7.7944f    2.4557f







 ****     small-signal transfer characteristics

      v(3)/vvip                                =   10.3389k
      input resistance at             vvip     =  1.000e+20
      output resistance at v(3)                =  122.8752k



 ******
 opa_open_loop

 ****** ac analysis tnom=  25.000 temp=  27.000 ******
 x

 freq         volt db    volt phase 
             3          3           
    1.00000    80.2895  -110.7248m  
    1.25893    80.2895  -139.3942m  
    1.58489    80.2894  -175.4867m  
    1.99526    80.2894  -220.9242m  
    2.51189    80.2894  -278.1263m  
    3.16228    80.2893  -350.1387m  
    3.98107    80.2892  -440.7953m  
    5.01187    80.2891  -554.9220m  
    6.30957    80.2888  -698.5926m  
    7.94328    80.2885  -879.4506m  
   10.00000    80.2879    -1.1071   
   12.58925    80.2869    -1.3937   
   15.84893    80.2854    -1.7543   
   19.95262    80.2830    -2.2082   
   25.11886    80.2793    -2.7791   
   31.62278    80.2733    -3.4971   
   39.81072    80.2639    -4.3994   
   50.11872    80.2489    -5.5321   
   63.09573    80.2254    -6.9520   
   79.43282    80.1883    -8.7271   
  100.00000    80.1303   -10.9377   
  125.89254    80.0398   -13.6738   
  158.48932    79.9001   -17.0290   
  199.52623    79.6876   -21.0861   
  251.18864    79.3706   -25.8934   
  316.22777    78.9114   -31.4301   
  398.10717    78.2705   -37.5735   
  501.18723    77.4159   -44.0859   
  630.95734    76.3333   -50.6460   
  794.32823    75.0310   -56.9207   
    1.00000k   73.5369   -62.6441   
    1.25893k   71.8894   -67.6609   
    1.58489k   70.1275   -71.9253   
    1.99526k   68.2847   -75.4701   
    2.51189k   66.3869   -78.3714   
    3.16228k   64.4526   -80.7217   
    3.98107k   62.4946   -82.6133   
    5.01187k   60.5214   -84.1294   
    6.30957k   58.5383   -85.3421   
    7.94328k   56.5490   -86.3113   
   10.00000k   54.5558   -87.0863   
   12.58925k   52.5601   -87.7074   
   15.84893k   50.5628   -88.2070   
   19.95262k   48.5645   -88.6114   
   25.11886k   46.5656   -88.9420   
   31.62278k   44.5662   -89.2164   
   39.81072k   42.5666   -89.4490   
   50.11872k   40.5669   -89.6523   
   63.09573k   38.5671   -89.8371   
   79.43282k   36.5671   -90.0133   
  100.00000k   34.5671   -90.1901   
  125.89254k   32.5671   -90.3771   
  158.48932k   30.5669   -90.5841   
  199.52623k   28.5667   -90.8223   
  251.18864k   26.5663   -91.1042   
  316.22777k   24.5657   -91.4448   
  398.10717k   22.5647   -91.8624   
  501.18723k   20.5632   -92.3790   
  630.95734k   18.5607   -93.0219   
  794.32823k   16.5567   -93.8252   
    1.00000x   14.5505   -94.8310   
    1.25893x   12.5407   -96.0917   
    1.58489x   10.5251   -97.6722   
    1.99526x    8.5006   -99.6519   
    2.51189x    6.4621  -102.1273   
    3.16228x    4.4018  -105.2127   
    3.98107x    2.3083  -109.0385   
    5.01187x  164.8428m -113.7453   
    6.30957x   -2.0516  -119.4684   
    7.94328x   -4.3703  -126.3129   
   10.00000x   -6.8234  -134.3186   
   12.58925x   -9.4393  -143.4293   
   15.84893x  -12.2310  -153.4850   
   19.95262x  -15.1857  -164.2549   
   25.11886x  -18.2604  -175.4936   
   31.62278x  -21.3882   173.0178   
   39.81072x  -24.4928   161.4754   
   50.11872x  -27.5058   150.0847   
   63.09573x  -30.3830   139.0761   
   79.43282x  -33.1134   128.6801   
  100.00000x  -35.7175   119.0829   
  125.89254x  -38.2383   110.4103   
  158.48932x  -40.7260   102.7616   
  199.52623x  -43.2212    96.2723   
  251.18864x  -45.7335    91.1355   
  316.22777x  -48.2232    87.4868   
  398.10717x  -50.6098    85.1494   
  501.18723x  -52.8251    83.5032   
  630.95734x  -54.8639    81.7571   
  794.32823x  -56.7703    79.3587   
    1.00000g  -58.5881    76.0948   
y

          ***** job concluded
1****** HSPICE -- K-2015.06-3 win64 (Aug  6 2015) ******                        
 ******  
 opa_open_loop

 ****** job statistics summary tnom=  25.000 temp=  27.000 ******

  ******  HSPICE Threads Information  ******

  Command Line Threads Count :     1
  Available CPU Count        :    16
  Actual Threads Count       :     1


  ******  Circuit Statistics  ******
  # nodes       =      10 # elements   =      15
  # resistors   =       0 # capacitors =       2 # inductors   =       0
  # mutual_inds =       0 # vccs       =       0 # vcvs        =       0
  # cccs        =       0 # ccvs       =       0 # volt_srcs   =       4
  # curr_srcs   =       1 # diodes     =       0 # bjts        =       0
  # jfets       =       0 # mosfets    =       8 # U elements  =       0
  # T elements  =       0 # W elements =       0 # B elements  =       0
  # S elements  =       0 # P elements =       0 # va device   =       0
  # vector_srcs =       0 # N elements =       0


  ******  Runtime Statistics (seconds)  ******

  analysis           time    # points   tot. iter  conv.iter
  op point           0.01           1           7
  dc sweep           0.00         101         221
  ac analysis        0.00          91          91
  readin             0.01
  errchk             0.00
  setup              0.01
  output             0.00


           peak memory used         50.43 megabytes
           total cpu time            0.04 seconds
           total elapsed time        0.25 seconds
           job started at     10:16:56 11/30/2021
           job ended   at     10:16:56 11/30/2021


  lic: Release hspice token(s) 
 lic: total license checkout elapse time:        0.20(s)
